  0
SECTION
  2
ENTITIES
999
DXF created from EnergyPlus
999
Program Version,EnergyPlus, Windows, VERSION 6.0.0.015
999
Polygon Action,ThickPolyline
999
Color Scheme,Default
999
Text - True North
  0
TEXT
  8
1
  6
Continuous
 62
  3
 10
      -11.00000
 20
       -6.50978
 30
        0.10000
 40
 .25
  1
True North
 41
 0.0
  7
MONOTXT
210
0.0
220
0.0
230
1.0
999
Text - Building Title
  0
TEXT
  8
1
  6
Continuous
 62
  3
 10
      -14.00000
 20
      -10.50978
 30
        0.10000
 40
 .4
  1
Building - PSI HOUSE DORM AND OFFICES
 41
 0.0
  7
MONOTXT
210
0.0
220
0.0
230
1.0
999
North Arrow Stem
  0
3DFACE
  8
1
 62
  3
 10
      -10.00000
 20
       -6.50978
 30
        0.10000
 11
      -10.00000
 21
       -6.50978
 31
        0.00000
 12
      -10.00000
 22
       -9.50978
 32
        0.00000
 13
      -10.00000
 23
       -9.50978
 33
        0.10000
999
North Arrow Head 1
  0
3DFACE
  8
1
 62
  3
 10
      -10.00000
 20
       -6.50978
 30
        0.10000
 11
      -10.00000
 21
       -6.50978
 31
        0.00000
 12
      -10.50000
 22
       -7.37581
 32
        0.00000
 13
      -10.50000
 23
       -7.37581
 33
        0.10000
999
North Arrow Head 2
  0
3DFACE
  8
1
 62
  3
 10
      -10.00000
 20
       -6.50978
 30
        0.10000
 11
      -10.00000
 21
       -6.50978
 31
        0.00000
 12
       -9.50000
 22
       -7.37581
 32
        0.00000
 13
       -9.50000
 23
       -7.37581
 33
        0.10000
999
North Arrow Side 1
  0
3DFACE
  8
1
 62
  3
 10
      -10.50000
 20
       -5.00978
 30
        0.10000
 11
      -10.50000
 21
       -5.00978
 31
        0.00000
 12
      -10.50000
 22
       -6.00978
 32
        0.00000
 13
      -10.50000
 23
       -6.00978
 33
        0.10000
999
North Arrow Side 2
  0
3DFACE
  8
1
 62
  3
 10
      -10.50000
 20
       -5.00978
 30
        0.10000
 11
      -10.50000
 21
       -5.00978
 31
        0.00000
 12
       -9.50000
 22
       -6.00978
 32
        0.00000
 13
       -9.50000
 23
       -6.00978
 33
        0.10000
999
North Arrow Side 3
  0
3DFACE
  8
1
 62
  3
 10
       -9.50000
 20
       -5.00978
 30
        0.10000
 11
       -9.50000
 21
       -5.00978
 31
        0.00000
 12
       -9.50000
 22
       -6.00978
 32
        0.00000
 13
       -9.50000
 23
       -6.00978
 33
        0.10000
999
Zone Names
999
Zone=1:PSI_FOYER
999
Zone=2:DORM_ROOMS_AND_COMMON_AREAS
999
Zone=3:LEFT_FORK
999
Zone=4:MIDDLE_FORK
999
Zone=5:RIGHT_FORK
999
PSI FOYER:ZN001:WALL001
  0
3DFACE
  8
PSI_FOYER
 62
 43
 10
        0.00000
 20
        0.00000
 30
        1.52400
 11
        0.00000
 21
        0.00000
 31
        0.00000
 12
       12.67966
 22
       -9.50978
 32
        0.00000
 13
       12.67966
 23
       -9.50978
 33
        1.52400
999
PSI FOYER:ZN001:WALL002
  0
3DFACE
  8
PSI_FOYER
 62
 43
 10
       12.67966
 20
       -9.50978
 30
        1.52400
 11
       12.67966
 21
       -9.50978
 31
        0.00000
 12
       16.33727
 22
       -4.63299
 32
        0.00000
 13
       16.33727
 23
       -4.63299
 33
        6.09600
999
PSI FOYER:ZN001:WALL003
  0
3DFACE
  8
PSI_FOYER
 62
 43
 10
        3.65761
 20
        4.87679
 30
        6.09600
 11
        3.65761
 21
        4.87679
 31
        0.00000
 12
        0.00000
 22
        0.00000
 32
        0.00000
 13
        0.00000
 23
        0.00000
 33
        1.52400
999
PSI FOYER:ZN001:WALL004
  0
3DFACE
  8
PSI_FOYER
 62
 43
 10
       16.33727
 20
       -4.63299
 30
        6.09600
 11
       16.33727
 21
       -4.63299
 31
        0.00000
 12
        3.65761
 22
        4.87679
 32
        0.00000
 13
        3.65761
 23
        4.87679
 33
        6.09600
999
PSI FOYER:ZN001:FLR001
  0
3DFACE
  8
PSI_FOYER
 62
  8
 10
       16.33727
 20
       -4.63299
 30
        0.00000
 11
       12.67966
 21
       -9.50978
 31
        0.00000
 12
        0.00000
 22
        0.00000
 32
        0.00000
 13
        3.65761
 23
        4.87679
 33
        0.00000
999
PSI FOYER:ZN001:ROOF001
  0
3DFACE
  8
PSI_FOYER
 62
 15
 10
        3.65761
 20
        4.87679
 30
        6.09600
 11
        0.00000
 21
        0.00000
 31
        1.52400
 12
       12.67966
 22
       -9.50978
 32
        1.52400
 13
       16.33727
 23
       -4.63299
 33
        6.09600
999
PSI FOYER:ZN001:ROOF001:WIN001
  0
3DFACE
  8
PSI_FOYER
 62
143
 10
        3.75514
 20
        4.49884
 30
        5.91312
 11
        0.39014
 21
        0.01219
 31
        1.70688
 12
       12.58213
 22
       -9.13183
 32
        1.70688
 13
       15.94712
 23
       -4.64518
 33
        5.91312
999
DORM ROOMS AND COMMON AREAS:ZN002:WALL001
  0
3DFACE
  8
DORM_ROOMS_AND_COMMON_AREAS
 62
 43
 10
       16.24583
 20
       -4.75491
 30
        6.09600
 11
       16.24583
 21
       -4.75491
 31
        0.00000
 12
       31.60779
 22
       15.72763
 32
        0.00000
 13
       31.60779
 23
       15.72763
 33
        6.09600
999
DORM ROOMS AND COMMON AREAS:ZN002:WALL001:WIN001
  0
3DFACE
  8
DORM_ROOMS_AND_COMMON_AREAS
 62
143
 10
       17.08708
 20
       -3.63325
 30
        5.54736
 11
       17.08708
 21
       -3.63325
 31
        3.71856
 12
       17.81860
 22
       -2.65789
 32
        3.71856
 13
       17.81860
 23
       -2.65789
 33
        5.54736
999
DORM ROOMS AND COMMON AREAS:ZN002:WALL001:WIN002
  0
3DFACE
  8
DORM_ROOMS_AND_COMMON_AREAS
 62
143
 10
       18.23923
 20
       -2.09706
 30
        2.77368
 11
       18.23923
 21
       -2.09706
 31
        0.94488
 12
       18.97075
 22
       -1.12170
 32
        0.94488
 13
       18.97075
 23
       -1.12170
 33
        2.77368
999
DORM ROOMS AND COMMON AREAS:ZN002:WALL001:WIN003
  0
3DFACE
  8
DORM_ROOMS_AND_COMMON_AREAS
 62
143
 10
       19.35480
 20
       -0.60963
 30
        5.60832
 11
       19.35480
 21
       -0.60963
 31
        3.77952
 12
       20.08632
 22
        0.36573
 32
        3.77952
 13
       20.08632
 23
        0.36573
 33
        5.60832
999
DORM ROOMS AND COMMON AREAS:ZN002:WALL001:WIN004
  0
3DFACE
  8
DORM_ROOMS_AND_COMMON_AREAS
 62
143
 10
       20.78127
 20
        1.29232
 30
        2.68224
 11
       20.78127
 21
        1.29232
 31
        0.85344
 12
       21.51279
 22
        2.26768
 32
        0.85344
 13
       21.51279
 23
        2.26768
 33
        2.68224
999
DORM ROOMS AND COMMON AREAS:ZN002:WALL001:WIN005
  0
3DFACE
  8
DORM_ROOMS_AND_COMMON_AREAS
 62
143
 10
       21.86026
 20
        2.73097
 30
        5.69976
 11
       21.86026
 21
        2.73097
 31
        3.87096
 12
       22.59178
 22
        3.70633
 32
        3.87096
 13
       22.59178
 23
        3.70633
 33
        5.69976
999
DORM ROOMS AND COMMON AREAS:ZN002:WALL001:WIN006
  0
3DFACE
  8
DORM_ROOMS_AND_COMMON_AREAS
 62
143
 10
       23.17700
 20
        4.48662
 30
        2.65176
 11
       23.17700
 21
        4.48662
 31
        0.82296
 12
       23.90852
 22
        5.46197
 32
        0.82296
 13
       23.90852
 23
        5.46197
 33
        2.65176
999
DORM ROOMS AND COMMON AREAS:ZN002:WALL001:WIN007
  0
3DFACE
  8
DORM_ROOMS_AND_COMMON_AREAS
 62
143
 10
       24.32915
 20
        6.02281
 30
        5.76072
 11
       24.32915
 21
        6.02281
 31
        3.93192
 12
       25.06067
 22
        6.99817
 32
        3.93192
 13
       25.06067
 23
        6.99817
 33
        5.76072
999
DORM ROOMS AND COMMON AREAS:ZN002:WALL001:WIN008
  0
3DFACE
  8
DORM_ROOMS_AND_COMMON_AREAS
 62
143
 10
       25.59102
 20
        7.70530
 30
        2.65176
 11
       25.59102
 21
        7.70530
 31
        0.82296
 12
       26.32254
 22
        8.68066
 32
        0.82296
 13
       26.32254
 23
        8.68066
 33
        2.65176
999
DORM ROOMS AND COMMON AREAS:ZN002:WALL001:WIN009
  0
3DFACE
  8
DORM_ROOMS_AND_COMMON_AREAS
 62
143
 10
       27.07235
 20
        9.68040
 30
        5.82168
 11
       27.07235
 21
        9.68040
 31
        3.99288
 12
       27.80387
 22
       10.65576
 32
        3.99288
 13
       27.80387
 23
       10.65576
 33
        5.82168
999
DORM ROOMS AND COMMON AREAS:ZN002:WALL001:WIN010
  0
3DFACE
  8
DORM_ROOMS_AND_COMMON_AREAS
 62
143
 10
       28.35252
 20
       11.38728
 30
        2.68224
 11
       28.35252
 21
       11.38728
 31
        0.85344
 12
       29.08404
 22
       12.36264
 32
        0.85344
 13
       29.08404
 23
       12.36264
 33
        2.68224
999
DORM ROOMS AND COMMON AREAS:ZN002:WALL002
  0
3DFACE
  8
DORM_ROOMS_AND_COMMON_AREAS
 62
 43
 10
       19.01957
 20
       25.35933
 30
        6.09600
 11
       19.01957
 21
       25.35933
 31
        0.00000
 12
        3.65761
 22
        4.87679
 32
        0.00000
 13
        3.65761
 23
        4.87679
 33
        6.09600
999
DORM ROOMS AND COMMON AREAS:ZN002:WALL002:WIN001
  0
3DFACE
  8
DORM_ROOMS_AND_COMMON_AREAS
 62
143
 10
        5.21209
 20
        6.94943
 30
        2.34696
 11
        5.21209
 21
        6.94943
 31
        0.51816
 12
        4.48057
 22
        5.97407
 32
        0.51816
 13
        4.48057
 23
        5.97407
 33
        2.34696
999
DORM ROOMS AND COMMON AREAS:ZN002:WALL002:WIN002
  0
3DFACE
  8
DORM_ROOMS_AND_COMMON_AREAS
 62
143
 10
        6.74829
 20
        8.99768
 30
        5.69976
 11
        6.74829
 21
        8.99768
 31
        3.87096
 12
        6.01677
 22
        8.02233
 32
        3.87096
 13
        6.01677
 23
        8.02233
 33
        5.69976
999
DORM ROOMS AND COMMON AREAS:ZN002:WALL002:WIN003
  0
3DFACE
  8
DORM_ROOMS_AND_COMMON_AREAS
 62
143
 10
        8.22962
 20
       10.97279
 30
        2.34696
 11
        8.22962
 21
       10.97279
 31
        0.51816
 12
        7.49810
 22
        9.99743
 32
        0.51816
 13
        7.49810
 23
        9.99743
 33
        2.34696
999
DORM ROOMS AND COMMON AREAS:ZN002:WALL002:WIN004
  0
3DFACE
  8
DORM_ROOMS_AND_COMMON_AREAS
 62
143
 10
        9.78410
 20
       13.04542
 30
        5.63880
 11
        9.78410
 21
       13.04542
 31
        3.81000
 12
        9.05258
 22
       12.07006
 32
        3.81000
 13
        9.05258
 23
       12.07006
 33
        5.63880
999
DORM ROOMS AND COMMON AREAS:ZN002:WALL002:WIN005
  0
3DFACE
  8
DORM_ROOMS_AND_COMMON_AREAS
 62
143
 10
       11.30201
 20
       15.06929
 30
        2.46888
 11
       11.30201
 21
       15.06929
 31
        0.64008
 12
       10.57049
 22
       14.09393
 32
        0.64008
 13
       10.57049
 23
       14.09393
 33
        2.46888
999
DORM ROOMS AND COMMON AREAS:ZN002:WALL002:WIN006
  0
3DFACE
  8
DORM_ROOMS_AND_COMMON_AREAS
 62
143
 10
       17.95886
 20
       23.94506
 30
        5.51688
 11
       17.95886
 21
       23.94506
 31
        3.68808
 12
       17.22734
 22
       22.96970
 32
        3.68808
 13
       17.22734
 23
       22.96970
 33
        5.51688
999
DORM ROOMS AND COMMON AREAS:ZN002:WALL002:WIN007
  0
3DFACE
  8
DORM_ROOMS_AND_COMMON_AREAS
 62
143
 10
       16.60554
 20
       22.14064
 30
        2.59080
 11
       16.60554
 21
       22.14064
 31
        0.76200
 12
       15.87402
 22
       21.16529
 32
        0.76200
 13
       15.87402
 23
       21.16529
 33
        2.59080
999
DORM ROOMS AND COMMON AREAS:ZN002:WALL002:WIN008
  0
3DFACE
  8
DORM_ROOMS_AND_COMMON_AREAS
 62
143
 10
       15.16079
 20
       20.21431
 30
        5.54736
 11
       15.16079
 21
       20.21431
 31
        3.71856
 12
       14.42927
 22
       19.23895
 32
        3.71856
 13
       14.42927
 23
       19.23895
 33
        5.54736
999
DORM ROOMS AND COMMON AREAS:ZN002:WALL002:WIN009
  0
3DFACE
  8
DORM_ROOMS_AND_COMMON_AREAS
 62
143
 10
       13.88063
 20
       18.50743
 30
        2.49936
 11
       13.88063
 21
       18.50743
 31
        0.67056
 12
       13.14910
 22
       17.53207
 32
        0.67056
 13
       13.14910
 23
       17.53207
 33
        2.49936
999
DORM ROOMS AND COMMON AREAS:ZN002:WALL002:WIN010
  0
3DFACE
  8
DORM_ROOMS_AND_COMMON_AREAS
 62
143
 10
       12.56389
 20
       16.75179
 30
        5.63880
 11
       12.56389
 21
       16.75179
 31
        3.81000
 12
       11.83237
 22
       15.77643
 32
        3.81000
 13
       11.83237
 23
       15.77643
 33
        5.63880
999
DORM ROOMS AND COMMON AREAS:ZN002:WALL003
  0
3DFACE
  8
DORM_ROOMS_AND_COMMON_AREAS
 62
 43
 10
        3.56617
 20
        4.75487
 30
        6.09600
 11
        3.56617
 21
        4.75487
 31
        0.00000
 12
       16.24583
 22
       -4.75491
 32
        0.00000
 13
       16.24583
 23
       -4.75491
 33
        6.09600
999
DORM ROOMS AND COMMON AREAS:ZN002:WALL004
  0
3DFACE
  8
DORM_ROOMS_AND_COMMON_AREAS
 62
 43
 10
       31.69923
 20
       15.84955
 30
        6.09600
 11
       31.69923
 21
       15.84955
 31
        0.00000
 12
       29.99236
 22
       21.70171
 32
        0.00000
 13
       29.99236
 23
       21.70171
 33
        6.09600
999
DORM ROOMS AND COMMON AREAS:ZN002:WALL005
  0
3DFACE
  8
DORM_ROOMS_AND_COMMON_AREAS
 62
 43
 10
       29.99236
 20
       21.70171
 30
        6.09600
 11
       29.99236
 21
       21.70171
 31
        0.00000
 12
       25.11557
 22
       25.35932
 32
        0.00000
 13
       25.11557
 23
       25.35932
 33
        6.09600
999
DORM ROOMS AND COMMON AREAS:ZN002:WALL006
  0
3DFACE
  8
DORM_ROOMS_AND_COMMON_AREAS
 62
 43
 10
       25.11557
 20
       25.35932
 30
        6.09600
 11
       25.11557
 21
       25.35932
 31
        0.00000
 12
       19.01957
 22
       25.35933
 32
        0.00000
 13
       19.01957
 23
       25.35933
 33
        6.09600
999
DORM ROOMS AND COMMON AREAS:ZN002:FLR001
  0
3DFACE
  8
DORM_ROOMS_AND_COMMON_AREAS
 62
  8
 10
       31.69923
 20
       15.84955
 30
        0.00000
 11
       16.33727
 21
       -4.63299
 31
        0.00000
 12
        3.65761
 22
        4.87679
 32
        0.00000
 13
       19.01957
 23
       25.35933
 33
        0.00000
999
DORM ROOMS AND COMMON AREAS:ZN002:FLR002
  0
3DFACE
  8
DORM_ROOMS_AND_COMMON_AREAS
 62
  8
 10
       29.99236
 20
       21.70171
 30
        0.00000
 11
       31.69923
 21
       15.84955
 31
        0.00000
 12
       19.01957
 22
       25.35933
 32
        0.00000
 13
       25.11557
 23
       25.35932
 33
        0.00000
999
DORM ROOMS AND COMMON AREAS:ZN002:ROOF001
  0
3DFACE
  8
DORM_ROOMS_AND_COMMON_AREAS
 62
 15
 10
       19.01957
 20
       25.35933
 30
        6.09600
 11
        3.65761
 21
        4.87679
 31
        6.09600
 12
       16.33727
 22
       -4.63299
 32
        6.09600
 13
       31.69923
 23
       15.84955
 33
        6.09600
999
DORM ROOMS AND COMMON AREAS:ZN002:ROOF001:SKYLT001
  0
3DFACE
  8
DORM_ROOMS_AND_COMMON_AREAS
 62
143
 10
       14.91809
 20
        8.34942
 30
        6.09600
 11
       13.71809
 21
        6.74942
 31
        6.09600
 12
       15.31809
 22
        5.54942
 32
        6.09600
 13
       16.51809
 23
        7.14942
 33
        6.09600
999
DORM ROOMS AND COMMON AREAS:ZN002:ROOF001:SKYLT002
  0
3DFACE
  8
DORM_ROOMS_AND_COMMON_AREAS
 62
143
 10
       20.03875
 20
       15.17693
 30
        6.09600
 11
       18.83875
 21
       13.57693
 31
        6.09600
 12
       20.43875
 22
       12.37693
 32
        6.09600
 13
       21.63875
 23
       13.97693
 33
        6.09600
999
DORM ROOMS AND COMMON AREAS:ZN002:ROOF002
  0
3DFACE
  8
DORM_ROOMS_AND_COMMON_AREAS
 62
 15
 10
       19.01957
 20
       25.35933
 30
        6.09600
 11
       31.69923
 21
       15.84955
 31
        6.09600
 12
       29.99236
 22
       21.70171
 32
        6.09600
 13
       25.11557
 23
       25.35932
 33
        6.09600
999
LEFT FORK:ZN003:WALL001
  0
3DFACE
  8
LEFT_FORK
 62
 43
 10
       25.11556
 20
       25.35933
 30
        6.09600
 11
       25.11556
 21
       25.35933
 31
        0.00000
 12
       25.11556
 22
       37.55133
 32
        0.00000
 13
       25.11556
 23
       37.55133
 33
        6.09600
999
LEFT FORK:ZN003:WALL002
  0
3DFACE
  8
LEFT_FORK
 62
 43
 10
       25.11556
 20
       37.55133
 30
        6.09600
 11
       25.11556
 21
       37.55133
 31
        0.00000
 12
       19.01956
 22
       37.55133
 32
        0.00000
 13
       19.01956
 23
       37.55133
 33
        6.09600
999
LEFT FORK:ZN003:WALL002:WIN001
  0
3DFACE
  8
LEFT_FORK
 62
143
 10
       24.81076
 20
       37.55133
 30
        5.79120
 11
       24.81076
 21
       37.55133
 31
        0.30480
 12
       19.32436
 22
       37.55133
 32
        0.30480
 13
       19.32436
 23
       37.55133
 33
        5.79120
999
LEFT FORK:ZN003:WALL003
  0
3DFACE
  8
LEFT_FORK
 62
 43
 10
       19.01956
 20
       37.55133
 30
        6.09600
 11
       19.01956
 21
       37.55133
 31
        0.00000
 12
       19.01956
 22
       25.35933
 32
        0.00000
 13
       19.01956
 23
       25.35933
 33
        6.09600
999
LEFT FORK:ZN003:WALL003:WIN001
  0
3DFACE
  8
LEFT_FORK
 62
143
 10
       19.01956
 20
       37.24652
 30
        5.63880
 11
       19.01956
 21
       37.24652
 31
        3.81000
 12
       19.01956
 22
       36.02733
 32
        3.81000
 13
       19.01956
 23
       36.02733
 33
        5.63880
999
LEFT FORK:ZN003:WALL003:WIN002
  0
3DFACE
  8
LEFT_FORK
 62
143
 10
       19.01956
 20
       35.41773
 30
        5.63880
 11
       19.01956
 21
       35.41773
 31
        3.81000
 12
       19.01956
 22
       34.19853
 32
        3.81000
 13
       19.01956
 23
       34.19853
 33
        5.63880
999
LEFT FORK:ZN003:WALL003:WIN003
  0
3DFACE
  8
LEFT_FORK
 62
143
 10
       19.01956
 20
       33.58893
 30
        5.63880
 11
       19.01956
 21
       33.58893
 31
        3.81000
 12
       19.01956
 22
       32.36973
 32
        3.81000
 13
       19.01956
 23
       32.36973
 33
        5.63880
999
LEFT FORK:ZN003:WALL003:WIN004
  0
3DFACE
  8
LEFT_FORK
 62
143
 10
       19.01956
 20
       31.76013
 30
        5.63880
 11
       19.01956
 21
       31.76013
 31
        3.81000
 12
       19.01956
 22
       30.54093
 32
        3.81000
 13
       19.01956
 23
       30.54093
 33
        5.63880
999
LEFT FORK:ZN003:WALL003:WIN005
  0
3DFACE
  8
LEFT_FORK
 62
143
 10
       19.01956
 20
       37.24652
 30
        2.59080
 11
       19.01956
 21
       37.24652
 31
        0.76200
 12
       19.01956
 22
       36.02733
 32
        0.76200
 13
       19.01956
 23
       36.02733
 33
        2.59080
999
LEFT FORK:ZN003:WALL003:WIN006
  0
3DFACE
  8
LEFT_FORK
 62
143
 10
       19.01956
 20
       35.41773
 30
        2.59080
 11
       19.01956
 21
       35.41773
 31
        0.76200
 12
       19.01956
 22
       34.19853
 32
        0.76200
 13
       19.01956
 23
       34.19853
 33
        2.59080
999
LEFT FORK:ZN003:WALL003:WIN007
  0
3DFACE
  8
LEFT_FORK
 62
143
 10
       19.01956
 20
       33.58893
 30
        2.59080
 11
       19.01956
 21
       33.58893
 31
        0.76200
 12
       19.01956
 22
       32.36973
 32
        0.76200
 13
       19.01956
 23
       32.36973
 33
        2.59080
999
LEFT FORK:ZN003:WALL003:WIN008
  0
3DFACE
  8
LEFT_FORK
 62
143
 10
       19.01956
 20
       31.76013
 30
        2.59080
 11
       19.01956
 21
       31.76013
 31
        0.76200
 12
       19.01956
 22
       30.54093
 32
        0.76200
 13
       19.01956
 23
       30.54093
 33
        2.59080
999
LEFT FORK:ZN003:WALL003:WIN009
  0
3DFACE
  8
LEFT_FORK
 62
143
 10
       19.01956
 20
       29.93133
 30
        4.11480
 11
       19.01956
 21
       29.93133
 31
        2.28600
 12
       19.01956
 22
       28.71213
 32
        2.28600
 13
       19.01956
 23
       28.71213
 33
        4.11480
999
LEFT FORK:ZN003:WALL004
  0
3DFACE
  8
LEFT_FORK
 62
 43
 10
       19.01956
 20
       25.35933
 30
        6.09600
 11
       19.01956
 21
       25.35933
 31
        0.00000
 12
       25.11556
 22
       25.35933
 32
        0.00000
 13
       25.11556
 23
       25.35933
 33
        6.09600
999
LEFT FORK:ZN003:FLR001
  0
3DFACE
  8
LEFT_FORK
 62
  8
 10
       25.11556
 20
       37.55133
 30
        0.00000
 11
       25.11556
 21
       25.35933
 31
        0.00000
 12
       19.01956
 22
       25.35933
 32
        0.00000
 13
       19.01956
 23
       37.55133
 33
        0.00000
999
LEFT FORK:ZN003:ROOF001
  0
3DFACE
  8
LEFT_FORK
 62
 15
 10
       19.01956
 20
       37.55133
 30
        6.09600
 11
       19.01956
 21
       25.35933
 31
        6.09600
 12
       25.11556
 22
       25.35933
 32
        6.09600
 13
       25.11556
 23
       37.55133
 33
        6.09600
999
MIDDLE FORK:ZN004:WALL001
  0
3DFACE
  8
MIDDLE_FORK
 62
 43
 10
       29.99236
 20
       21.70171
 30
        6.09600
 11
       29.99236
 21
       21.70171
 31
        0.00000
 12
       37.30758
 22
       31.45529
 32
        0.00000
 13
       37.30758
 23
       31.45530
 33
        6.09600
999
MIDDLE FORK:ZN004:WALL002
  0
3DFACE
  8
MIDDLE_FORK
 62
 43
 10
       37.30758
 20
       31.45530
 30
        6.09600
 11
       37.30758
 21
       31.45529
 31
        0.00000
 12
       32.43078
 22
       35.11290
 32
        0.00000
 13
       32.43078
 23
       35.11290
 33
        6.09600
999
MIDDLE FORK:ZN004:WALL002:WIN001
  0
3DFACE
  8
MIDDLE_FORK
 62
143
 10
       37.06374
 20
       31.63818
 30
        5.79120
 11
       37.06374
 21
       31.63817
 31
        0.30480
 12
       32.67462
 22
       34.93002
 32
        0.30480
 13
       32.67462
 23
       34.93002
 33
        5.79120
999
MIDDLE FORK:ZN004:WALL003
  0
3DFACE
  8
MIDDLE_FORK
 62
 43
 10
       32.43078
 20
       35.11290
 30
        6.09600
 11
       32.43078
 21
       35.11290
 31
        0.00000
 12
       25.11556
 22
       25.35932
 32
        0.00000
 13
       25.11556
 23
       25.35932
 33
        6.09600
999
MIDDLE FORK:ZN004:WALL004
  0
3DFACE
  8
MIDDLE_FORK
 62
 43
 10
       25.11556
 20
       25.35932
 30
        6.09600
 11
       25.11556
 21
       25.35932
 31
        0.00000
 12
       29.99236
 22
       21.70171
 32
        0.00000
 13
       29.99236
 23
       21.70171
 33
        6.09600
999
MIDDLE FORK:ZN004:FLR001
  0
3DFACE
  8
MIDDLE_FORK
 62
  8
 10
       37.30758
 20
       31.45529
 30
        0.00000
 11
       29.99236
 21
       21.70171
 31
        0.00000
 12
       25.11556
 22
       25.35932
 32
        0.00000
 13
       32.43078
 23
       35.11290
 33
        0.00000
999
MIDDLE FORK:ZN004:ROOF001
  0
3DFACE
  8
MIDDLE_FORK
 62
 15
 10
       32.43078
 20
       35.11290
 30
        6.09600
 11
       25.11556
 21
       25.35932
 31
        6.09600
 12
       29.99236
 22
       21.70171
 32
        6.09600
 13
       37.30758
 23
       31.45530
 33
        6.09600
999
RIGHT FORK:ZN005:WALL001
  0
3DFACE
  8
RIGHT_FORK
 62
 43
 10
       31.69922
 20
       15.84954
 30
        6.09600
 11
       31.69922
 21
       15.84954
 31
        0.00000
 12
       43.40355
 22
       19.26326
 32
        0.00000
 13
       43.40355
 23
       19.26326
 33
        6.09600
999
RIGHT FORK:ZN005:WALL001:WIN001
  0
3DFACE
  8
RIGHT_FORK
 62
143
 10
       41.79420
 20
       18.79387
 30
        5.63880
 11
       41.79420
 21
       18.79387
 31
        3.81000
 12
       42.96464
 22
       19.13525
 32
        3.81000
 13
       42.96464
 23
       19.13525
 33
        5.63880
999
RIGHT FORK:ZN005:WALL001:WIN002
  0
3DFACE
  8
RIGHT_FORK
 62
143
 10
       40.27264
 20
       18.35009
 30
        5.63880
 11
       40.27264
 21
       18.35009
 31
        3.81000
 12
       41.44307
 22
       18.69146
 32
        3.81000
 13
       41.44307
 23
       18.69146
 33
        5.63880
999
RIGHT FORK:ZN005:WALL001:WIN003
  0
3DFACE
  8
RIGHT_FORK
 62
143
 10
       38.72182
 20
       17.89777
 30
        5.63880
 11
       38.72182
 21
       17.89777
 31
        3.81000
 12
       39.89225
 22
       18.23914
 32
        3.81000
 13
       39.89225
 23
       18.23914
 33
        5.63880
999
RIGHT FORK:ZN005:WALL001:WIN004
  0
3DFACE
  8
RIGHT_FORK
 62
143
 10
       37.20025
 20
       17.45399
 30
        5.63880
 11
       37.20025
 21
       17.45399
 31
        3.81000
 12
       38.37069
 22
       17.79536
 32
        3.81000
 13
       38.37069
 23
       17.79536
 33
        5.63880
999
RIGHT FORK:ZN005:WALL001:WIN005
  0
3DFACE
  8
RIGHT_FORK
 62
143
 10
       41.85273
 20
       18.81094
 30
        2.71272
 11
       41.85273
 21
       18.81094
 31
        0.88392
 12
       43.02316
 22
       19.15231
 32
        0.88392
 13
       43.02316
 23
       19.15231
 33
        2.71272
999
RIGHT FORK:ZN005:WALL001:WIN006
  0
3DFACE
  8
RIGHT_FORK
 62
143
 10
       40.36042
 20
       18.37569
 30
        2.71272
 11
       40.36042
 21
       18.37569
 31
        0.88392
 12
       41.53086
 22
       18.71707
 32
        0.88392
 13
       41.53086
 23
       18.71707
 33
        2.71272
999
RIGHT FORK:ZN005:WALL001:WIN007
  0
3DFACE
  8
RIGHT_FORK
 62
143
 10
       38.78034
 20
       17.91484
 30
        2.71272
 11
       38.78034
 21
       17.91484
 31
        0.88392
 12
       39.95077
 22
       18.25621
 32
        0.88392
 13
       39.95077
 23
       18.25621
 33
        2.71272
999
RIGHT FORK:ZN005:WALL001:WIN008
  0
3DFACE
  8
RIGHT_FORK
 62
143
 10
       37.20025
 20
       17.45399
 30
        2.71272
 11
       37.20025
 21
       17.45399
 31
        0.88392
 12
       38.37069
 22
       17.79536
 32
        0.88392
 13
       38.37069
 23
       17.79536
 33
        2.71272
999
RIGHT FORK:ZN005:WALL001:WIN009
  0
3DFACE
  8
RIGHT_FORK
 62
143
 10
       35.59091
 20
       16.98460
 30
        4.08432
 11
       35.59091
 21
       16.98460
 31
        2.25552
 12
       36.76134
 22
       17.32597
 32
        2.25552
 13
       36.76134
 23
       17.32597
 33
        4.08432
999
RIGHT FORK:ZN005:WALL002
  0
3DFACE
  8
RIGHT_FORK
 62
 43
 10
       43.40355
 20
       19.26326
 30
        6.09600
 11
       43.40355
 21
       19.26326
 31
        0.00000
 12
       41.69669
 22
       25.11543
 32
        0.00000
 13
       41.69669
 23
       25.11543
 33
        6.09600
999
RIGHT FORK:ZN005:WALL002:WIN001
  0
3DFACE
  8
RIGHT_FORK
 62
143
 10
       43.31821
 20
       19.55587
 30
        5.79120
 11
       43.31821
 21
       19.55587
 31
        0.30480
 12
       41.78203
 22
       24.82282
 32
        0.30480
 13
       41.78203
 23
       24.82282
 33
        5.79120
999
RIGHT FORK:ZN005:WALL003
  0
3DFACE
  8
RIGHT_FORK
 62
 43
 10
       41.69669
 20
       25.11543
 30
        6.09600
 11
       41.69669
 21
       25.11543
 31
        0.00000
 12
       29.99236
 22
       21.70171
 32
        0.00000
 13
       29.99236
 23
       21.70171
 33
        6.09600
999
RIGHT FORK:ZN005:WALL004
  0
3DFACE
  8
RIGHT_FORK
 62
 43
 10
       29.99236
 20
       21.70171
 30
        6.09600
 11
       29.99236
 21
       21.70171
 31
        0.00000
 12
       31.69922
 22
       15.84954
 32
        0.00000
 13
       31.69922
 23
       15.84954
 33
        6.09600
999
RIGHT FORK:ZN005:FLR001
  0
3DFACE
  8
RIGHT_FORK
 62
  8
 10
       41.69669
 20
       25.11543
 30
        0.00000
 11
       43.40355
 21
       19.26326
 31
        0.00000
 12
       31.69922
 22
       15.84954
 32
        0.00000
 13
       29.99236
 23
       21.70171
 33
        0.00000
999
RIGHT FORK:ZN005:ROOF001
  0
3DFACE
  8
RIGHT_FORK
 62
 15
 10
       29.99236
 20
       21.70171
 30
        6.09600
 11
       31.69922
 21
       15.84954
 31
        6.09600
 12
       43.40355
 22
       19.26326
 32
        6.09600
 13
       41.69669
 23
       25.11543
 33
        6.09600
999
PSI FOYER:DayRefPt:1
  0
CIRCLE
  8
PSI_FOYER
 62
 10
 10
        7.70000
 20
       -1.40000
 30
        0.90000
 40
        0.20000
999
DORM ROOMS AND COMMON AREAS:DayRefPt:1
  0
CIRCLE
  8
DORM_ROOMS_AND_COMMON_AREAS
 62
 10
 10
       17.56000
 20
       10.08000
 30
        0.90000
 40
        0.20000
999
LEFT FORK:DayRefPt:1
  0
CIRCLE
  8
LEFT_FORK
 62
 10
 10
       22.07000
 20
       31.46000
 30
        0.90000
 40
        0.20000
999
MIDDLE FORK:DayRefPt:1
  0
CIRCLE
  8
MIDDLE_FORK
 62
 10
 10
       31.22000
 20
       28.41000
 30
        0.90000
 40
        0.20000
999
RIGHT FORK:DayRefPt:1
  0
CIRCLE
  8
RIGHT_FORK
 62
 10
 10
       36.70000
 20
       20.48000
 30
        0.90000
 40
        0.20000
999
DORM ROOMS AND COMMON AREAS:MapRefPt:1
  0
CIRCLE
  8
DORM_ROOMS_AND_COMMON_AREAS
 62
 10
 10
       14.20928
 20
        6.73770
 30
        0.76200
 40
        0.05000
999
DORM ROOMS AND COMMON AREAS:MapRefPt:2
  0
CIRCLE
  8
DORM_ROOMS_AND_COMMON_AREAS
 62
 10
 10
       14.93151
 20
        6.73770
 30
        0.76200
 40
        0.05000
999
DORM ROOMS AND COMMON AREAS:MapRefPt:3
  0
CIRCLE
  8
DORM_ROOMS_AND_COMMON_AREAS
 62
 10
 10
       15.65373
 20
        6.73770
 30
        0.76200
 40
        0.05000
999
DORM ROOMS AND COMMON AREAS:MapRefPt:4
  0
CIRCLE
  8
DORM_ROOMS_AND_COMMON_AREAS
 62
 10
 10
       16.37595
 20
        6.73770
 30
        0.76200
 40
        0.05000
999
DORM ROOMS AND COMMON AREAS:MapRefPt:5
  0
CIRCLE
  8
DORM_ROOMS_AND_COMMON_AREAS
 62
 10
 10
       17.09817
 20
        6.73770
 30
        0.76200
 40
        0.05000
999
DORM ROOMS AND COMMON AREAS:MapRefPt:6
  0
CIRCLE
  8
DORM_ROOMS_AND_COMMON_AREAS
 62
 10
 10
       17.82040
 20
        6.73770
 30
        0.76200
 40
        0.05000
999
DORM ROOMS AND COMMON AREAS:MapRefPt:7
  0
CIRCLE
  8
DORM_ROOMS_AND_COMMON_AREAS
 62
 10
 10
       18.54262
 20
        6.73770
 30
        0.76200
 40
        0.05000
999
DORM ROOMS AND COMMON AREAS:MapRefPt:8
  0
CIRCLE
  8
DORM_ROOMS_AND_COMMON_AREAS
 62
 10
 10
       19.26484
 20
        6.73770
 30
        0.76200
 40
        0.05000
999
DORM ROOMS AND COMMON AREAS:MapRefPt:9
  0
CIRCLE
  8
DORM_ROOMS_AND_COMMON_AREAS
 62
 10
 10
       19.98706
 20
        6.73770
 30
        0.76200
 40
        0.05000
999
DORM ROOMS AND COMMON AREAS:MapRefPt:10
  0
CIRCLE
  8
DORM_ROOMS_AND_COMMON_AREAS
 62
 10
 10
       20.70928
 20
        6.73770
 30
        0.76200
 40
        0.05000
999
DORM ROOMS AND COMMON AREAS:MapRefPt:11
  0
CIRCLE
  8
DORM_ROOMS_AND_COMMON_AREAS
 62
 10
 10
       14.20928
 20
        7.45992
 30
        0.76200
 40
        0.05000
999
DORM ROOMS AND COMMON AREAS:MapRefPt:12
  0
CIRCLE
  8
DORM_ROOMS_AND_COMMON_AREAS
 62
 10
 10
       14.93151
 20
        7.45992
 30
        0.76200
 40
        0.05000
999
DORM ROOMS AND COMMON AREAS:MapRefPt:13
  0
CIRCLE
  8
DORM_ROOMS_AND_COMMON_AREAS
 62
 10
 10
       15.65373
 20
        7.45992
 30
        0.76200
 40
        0.05000
999
DORM ROOMS AND COMMON AREAS:MapRefPt:14
  0
CIRCLE
  8
DORM_ROOMS_AND_COMMON_AREAS
 62
 10
 10
       16.37595
 20
        7.45992
 30
        0.76200
 40
        0.05000
999
DORM ROOMS AND COMMON AREAS:MapRefPt:15
  0
CIRCLE
  8
DORM_ROOMS_AND_COMMON_AREAS
 62
 10
 10
       17.09817
 20
        7.45992
 30
        0.76200
 40
        0.05000
999
DORM ROOMS AND COMMON AREAS:MapRefPt:16
  0
CIRCLE
  8
DORM_ROOMS_AND_COMMON_AREAS
 62
 10
 10
       17.82040
 20
        7.45992
 30
        0.76200
 40
        0.05000
999
DORM ROOMS AND COMMON AREAS:MapRefPt:17
  0
CIRCLE
  8
DORM_ROOMS_AND_COMMON_AREAS
 62
 10
 10
       18.54262
 20
        7.45992
 30
        0.76200
 40
        0.05000
999
DORM ROOMS AND COMMON AREAS:MapRefPt:18
  0
CIRCLE
  8
DORM_ROOMS_AND_COMMON_AREAS
 62
 10
 10
       19.26484
 20
        7.45992
 30
        0.76200
 40
        0.05000
999
DORM ROOMS AND COMMON AREAS:MapRefPt:19
  0
CIRCLE
  8
DORM_ROOMS_AND_COMMON_AREAS
 62
 10
 10
       19.98706
 20
        7.45992
 30
        0.76200
 40
        0.05000
999
DORM ROOMS AND COMMON AREAS:MapRefPt:20
  0
CIRCLE
  8
DORM_ROOMS_AND_COMMON_AREAS
 62
 10
 10
       20.70928
 20
        7.45992
 30
        0.76200
 40
        0.05000
999
DORM ROOMS AND COMMON AREAS:MapRefPt:21
  0
CIRCLE
  8
DORM_ROOMS_AND_COMMON_AREAS
 62
 10
 10
       14.20928
 20
        8.18214
 30
        0.76200
 40
        0.05000
999
DORM ROOMS AND COMMON AREAS:MapRefPt:22
  0
CIRCLE
  8
DORM_ROOMS_AND_COMMON_AREAS
 62
 10
 10
       14.93151
 20
        8.18214
 30
        0.76200
 40
        0.05000
999
DORM ROOMS AND COMMON AREAS:MapRefPt:23
  0
CIRCLE
  8
DORM_ROOMS_AND_COMMON_AREAS
 62
 10
 10
       15.65373
 20
        8.18214
 30
        0.76200
 40
        0.05000
999
DORM ROOMS AND COMMON AREAS:MapRefPt:24
  0
CIRCLE
  8
DORM_ROOMS_AND_COMMON_AREAS
 62
 10
 10
       16.37595
 20
        8.18214
 30
        0.76200
 40
        0.05000
999
DORM ROOMS AND COMMON AREAS:MapRefPt:25
  0
CIRCLE
  8
DORM_ROOMS_AND_COMMON_AREAS
 62
 10
 10
       17.09817
 20
        8.18214
 30
        0.76200
 40
        0.05000
999
DORM ROOMS AND COMMON AREAS:MapRefPt:26
  0
CIRCLE
  8
DORM_ROOMS_AND_COMMON_AREAS
 62
 10
 10
       17.82040
 20
        8.18214
 30
        0.76200
 40
        0.05000
999
DORM ROOMS AND COMMON AREAS:MapRefPt:27
  0
CIRCLE
  8
DORM_ROOMS_AND_COMMON_AREAS
 62
 10
 10
       18.54262
 20
        8.18214
 30
        0.76200
 40
        0.05000
999
DORM ROOMS AND COMMON AREAS:MapRefPt:28
  0
CIRCLE
  8
DORM_ROOMS_AND_COMMON_AREAS
 62
 10
 10
       19.26484
 20
        8.18214
 30
        0.76200
 40
        0.05000
999
DORM ROOMS AND COMMON AREAS:MapRefPt:29
  0
CIRCLE
  8
DORM_ROOMS_AND_COMMON_AREAS
 62
 10
 10
       19.98706
 20
        8.18214
 30
        0.76200
 40
        0.05000
999
DORM ROOMS AND COMMON AREAS:MapRefPt:30
  0
CIRCLE
  8
DORM_ROOMS_AND_COMMON_AREAS
 62
 10
 10
       20.70928
 20
        8.18214
 30
        0.76200
 40
        0.05000
999
DORM ROOMS AND COMMON AREAS:MapRefPt:31
  0
CIRCLE
  8
DORM_ROOMS_AND_COMMON_AREAS
 62
 10
 10
       14.20928
 20
        8.90437
 30
        0.76200
 40
        0.05000
999
DORM ROOMS AND COMMON AREAS:MapRefPt:32
  0
CIRCLE
  8
DORM_ROOMS_AND_COMMON_AREAS
 62
 10
 10
       14.93151
 20
        8.90437
 30
        0.76200
 40
        0.05000
999
DORM ROOMS AND COMMON AREAS:MapRefPt:33
  0
CIRCLE
  8
DORM_ROOMS_AND_COMMON_AREAS
 62
 10
 10
       15.65373
 20
        8.90437
 30
        0.76200
 40
        0.05000
999
DORM ROOMS AND COMMON AREAS:MapRefPt:34
  0
CIRCLE
  8
DORM_ROOMS_AND_COMMON_AREAS
 62
 10
 10
       16.37595
 20
        8.90437
 30
        0.76200
 40
        0.05000
999
DORM ROOMS AND COMMON AREAS:MapRefPt:35
  0
CIRCLE
  8
DORM_ROOMS_AND_COMMON_AREAS
 62
 10
 10
       17.09817
 20
        8.90437
 30
        0.76200
 40
        0.05000
999
DORM ROOMS AND COMMON AREAS:MapRefPt:36
  0
CIRCLE
  8
DORM_ROOMS_AND_COMMON_AREAS
 62
 10
 10
       17.82040
 20
        8.90437
 30
        0.76200
 40
        0.05000
999
DORM ROOMS AND COMMON AREAS:MapRefPt:37
  0
CIRCLE
  8
DORM_ROOMS_AND_COMMON_AREAS
 62
 10
 10
       18.54262
 20
        8.90437
 30
        0.76200
 40
        0.05000
999
DORM ROOMS AND COMMON AREAS:MapRefPt:38
  0
CIRCLE
  8
DORM_ROOMS_AND_COMMON_AREAS
 62
 10
 10
       19.26484
 20
        8.90437
 30
        0.76200
 40
        0.05000
999
DORM ROOMS AND COMMON AREAS:MapRefPt:39
  0
CIRCLE
  8
DORM_ROOMS_AND_COMMON_AREAS
 62
 10
 10
       19.98706
 20
        8.90437
 30
        0.76200
 40
        0.05000
999
DORM ROOMS AND COMMON AREAS:MapRefPt:40
  0
CIRCLE
  8
DORM_ROOMS_AND_COMMON_AREAS
 62
 10
 10
       20.70928
 20
        8.90437
 30
        0.76200
 40
        0.05000
999
DORM ROOMS AND COMMON AREAS:MapRefPt:41
  0
CIRCLE
  8
DORM_ROOMS_AND_COMMON_AREAS
 62
 10
 10
       14.20928
 20
        9.62659
 30
        0.76200
 40
        0.05000
999
DORM ROOMS AND COMMON AREAS:MapRefPt:42
  0
CIRCLE
  8
DORM_ROOMS_AND_COMMON_AREAS
 62
 10
 10
       14.93151
 20
        9.62659
 30
        0.76200
 40
        0.05000
999
DORM ROOMS AND COMMON AREAS:MapRefPt:43
  0
CIRCLE
  8
DORM_ROOMS_AND_COMMON_AREAS
 62
 10
 10
       15.65373
 20
        9.62659
 30
        0.76200
 40
        0.05000
999
DORM ROOMS AND COMMON AREAS:MapRefPt:44
  0
CIRCLE
  8
DORM_ROOMS_AND_COMMON_AREAS
 62
 10
 10
       16.37595
 20
        9.62659
 30
        0.76200
 40
        0.05000
999
DORM ROOMS AND COMMON AREAS:MapRefPt:45
  0
CIRCLE
  8
DORM_ROOMS_AND_COMMON_AREAS
 62
 10
 10
       17.09817
 20
        9.62659
 30
        0.76200
 40
        0.05000
999
DORM ROOMS AND COMMON AREAS:MapRefPt:46
  0
CIRCLE
  8
DORM_ROOMS_AND_COMMON_AREAS
 62
 10
 10
       17.82040
 20
        9.62659
 30
        0.76200
 40
        0.05000
999
DORM ROOMS AND COMMON AREAS:MapRefPt:47
  0
CIRCLE
  8
DORM_ROOMS_AND_COMMON_AREAS
 62
 10
 10
       18.54262
 20
        9.62659
 30
        0.76200
 40
        0.05000
999
DORM ROOMS AND COMMON AREAS:MapRefPt:48
  0
CIRCLE
  8
DORM_ROOMS_AND_COMMON_AREAS
 62
 10
 10
       19.26484
 20
        9.62659
 30
        0.76200
 40
        0.05000
999
DORM ROOMS AND COMMON AREAS:MapRefPt:49
  0
CIRCLE
  8
DORM_ROOMS_AND_COMMON_AREAS
 62
 10
 10
       19.98706
 20
        9.62659
 30
        0.76200
 40
        0.05000
999
DORM ROOMS AND COMMON AREAS:MapRefPt:50
  0
CIRCLE
  8
DORM_ROOMS_AND_COMMON_AREAS
 62
 10
 10
       20.70928
 20
        9.62659
 30
        0.76200
 40
        0.05000
999
DORM ROOMS AND COMMON AREAS:MapRefPt:51
  0
CIRCLE
  8
DORM_ROOMS_AND_COMMON_AREAS
 62
 10
 10
       14.20928
 20
       10.34881
 30
        0.76200
 40
        0.05000
999
DORM ROOMS AND COMMON AREAS:MapRefPt:52
  0
CIRCLE
  8
DORM_ROOMS_AND_COMMON_AREAS
 62
 10
 10
       14.93151
 20
       10.34881
 30
        0.76200
 40
        0.05000
999
DORM ROOMS AND COMMON AREAS:MapRefPt:53
  0
CIRCLE
  8
DORM_ROOMS_AND_COMMON_AREAS
 62
 10
 10
       15.65373
 20
       10.34881
 30
        0.76200
 40
        0.05000
999
DORM ROOMS AND COMMON AREAS:MapRefPt:54
  0
CIRCLE
  8
DORM_ROOMS_AND_COMMON_AREAS
 62
 10
 10
       16.37595
 20
       10.34881
 30
        0.76200
 40
        0.05000
999
DORM ROOMS AND COMMON AREAS:MapRefPt:55
  0
CIRCLE
  8
DORM_ROOMS_AND_COMMON_AREAS
 62
 10
 10
       17.09817
 20
       10.34881
 30
        0.76200
 40
        0.05000
999
DORM ROOMS AND COMMON AREAS:MapRefPt:56
  0
CIRCLE
  8
DORM_ROOMS_AND_COMMON_AREAS
 62
 10
 10
       17.82040
 20
       10.34881
 30
        0.76200
 40
        0.05000
999
DORM ROOMS AND COMMON AREAS:MapRefPt:57
  0
CIRCLE
  8
DORM_ROOMS_AND_COMMON_AREAS
 62
 10
 10
       18.54262
 20
       10.34881
 30
        0.76200
 40
        0.05000
999
DORM ROOMS AND COMMON AREAS:MapRefPt:58
  0
CIRCLE
  8
DORM_ROOMS_AND_COMMON_AREAS
 62
 10
 10
       19.26484
 20
       10.34881
 30
        0.76200
 40
        0.05000
999
DORM ROOMS AND COMMON AREAS:MapRefPt:59
  0
CIRCLE
  8
DORM_ROOMS_AND_COMMON_AREAS
 62
 10
 10
       19.98706
 20
       10.34881
 30
        0.76200
 40
        0.05000
999
DORM ROOMS AND COMMON AREAS:MapRefPt:60
  0
CIRCLE
  8
DORM_ROOMS_AND_COMMON_AREAS
 62
 10
 10
       20.70928
 20
       10.34881
 30
        0.76200
 40
        0.05000
999
DORM ROOMS AND COMMON AREAS:MapRefPt:61
  0
CIRCLE
  8
DORM_ROOMS_AND_COMMON_AREAS
 62
 10
 10
       14.20928
 20
       11.07103
 30
        0.76200
 40
        0.05000
999
DORM ROOMS AND COMMON AREAS:MapRefPt:62
  0
CIRCLE
  8
DORM_ROOMS_AND_COMMON_AREAS
 62
 10
 10
       14.93151
 20
       11.07103
 30
        0.76200
 40
        0.05000
999
DORM ROOMS AND COMMON AREAS:MapRefPt:63
  0
CIRCLE
  8
DORM_ROOMS_AND_COMMON_AREAS
 62
 10
 10
       15.65373
 20
       11.07103
 30
        0.76200
 40
        0.05000
999
DORM ROOMS AND COMMON AREAS:MapRefPt:64
  0
CIRCLE
  8
DORM_ROOMS_AND_COMMON_AREAS
 62
 10
 10
       16.37595
 20
       11.07103
 30
        0.76200
 40
        0.05000
999
DORM ROOMS AND COMMON AREAS:MapRefPt:65
  0
CIRCLE
  8
DORM_ROOMS_AND_COMMON_AREAS
 62
 10
 10
       17.09817
 20
       11.07103
 30
        0.76200
 40
        0.05000
999
DORM ROOMS AND COMMON AREAS:MapRefPt:66
  0
CIRCLE
  8
DORM_ROOMS_AND_COMMON_AREAS
 62
 10
 10
       17.82040
 20
       11.07103
 30
        0.76200
 40
        0.05000
999
DORM ROOMS AND COMMON AREAS:MapRefPt:67
  0
CIRCLE
  8
DORM_ROOMS_AND_COMMON_AREAS
 62
 10
 10
       18.54262
 20
       11.07103
 30
        0.76200
 40
        0.05000
999
DORM ROOMS AND COMMON AREAS:MapRefPt:68
  0
CIRCLE
  8
DORM_ROOMS_AND_COMMON_AREAS
 62
 10
 10
       19.26484
 20
       11.07103
 30
        0.76200
 40
        0.05000
999
DORM ROOMS AND COMMON AREAS:MapRefPt:69
  0
CIRCLE
  8
DORM_ROOMS_AND_COMMON_AREAS
 62
 10
 10
       19.98706
 20
       11.07103
 30
        0.76200
 40
        0.05000
999
DORM ROOMS AND COMMON AREAS:MapRefPt:70
  0
CIRCLE
  8
DORM_ROOMS_AND_COMMON_AREAS
 62
 10
 10
       20.70928
 20
       11.07103
 30
        0.76200
 40
        0.05000
999
DORM ROOMS AND COMMON AREAS:MapRefPt:71
  0
CIRCLE
  8
DORM_ROOMS_AND_COMMON_AREAS
 62
 10
 10
       14.20928
 20
       11.79325
 30
        0.76200
 40
        0.05000
999
DORM ROOMS AND COMMON AREAS:MapRefPt:72
  0
CIRCLE
  8
DORM_ROOMS_AND_COMMON_AREAS
 62
 10
 10
       14.93151
 20
       11.79325
 30
        0.76200
 40
        0.05000
999
DORM ROOMS AND COMMON AREAS:MapRefPt:73
  0
CIRCLE
  8
DORM_ROOMS_AND_COMMON_AREAS
 62
 10
 10
       15.65373
 20
       11.79325
 30
        0.76200
 40
        0.05000
999
DORM ROOMS AND COMMON AREAS:MapRefPt:74
  0
CIRCLE
  8
DORM_ROOMS_AND_COMMON_AREAS
 62
 10
 10
       16.37595
 20
       11.79325
 30
        0.76200
 40
        0.05000
999
DORM ROOMS AND COMMON AREAS:MapRefPt:75
  0
CIRCLE
  8
DORM_ROOMS_AND_COMMON_AREAS
 62
 10
 10
       17.09817
 20
       11.79325
 30
        0.76200
 40
        0.05000
999
DORM ROOMS AND COMMON AREAS:MapRefPt:76
  0
CIRCLE
  8
DORM_ROOMS_AND_COMMON_AREAS
 62
 10
 10
       17.82040
 20
       11.79325
 30
        0.76200
 40
        0.05000
999
DORM ROOMS AND COMMON AREAS:MapRefPt:77
  0
CIRCLE
  8
DORM_ROOMS_AND_COMMON_AREAS
 62
 10
 10
       18.54262
 20
       11.79325
 30
        0.76200
 40
        0.05000
999
DORM ROOMS AND COMMON AREAS:MapRefPt:78
  0
CIRCLE
  8
DORM_ROOMS_AND_COMMON_AREAS
 62
 10
 10
       19.26484
 20
       11.79325
 30
        0.76200
 40
        0.05000
999
DORM ROOMS AND COMMON AREAS:MapRefPt:79
  0
CIRCLE
  8
DORM_ROOMS_AND_COMMON_AREAS
 62
 10
 10
       19.98706
 20
       11.79325
 30
        0.76200
 40
        0.05000
999
DORM ROOMS AND COMMON AREAS:MapRefPt:80
  0
CIRCLE
  8
DORM_ROOMS_AND_COMMON_AREAS
 62
 10
 10
       20.70928
 20
       11.79325
 30
        0.76200
 40
        0.05000
999
DORM ROOMS AND COMMON AREAS:MapRefPt:81
  0
CIRCLE
  8
DORM_ROOMS_AND_COMMON_AREAS
 62
 10
 10
       14.20928
 20
       12.51548
 30
        0.76200
 40
        0.05000
999
DORM ROOMS AND COMMON AREAS:MapRefPt:82
  0
CIRCLE
  8
DORM_ROOMS_AND_COMMON_AREAS
 62
 10
 10
       14.93151
 20
       12.51548
 30
        0.76200
 40
        0.05000
999
DORM ROOMS AND COMMON AREAS:MapRefPt:83
  0
CIRCLE
  8
DORM_ROOMS_AND_COMMON_AREAS
 62
 10
 10
       15.65373
 20
       12.51548
 30
        0.76200
 40
        0.05000
999
DORM ROOMS AND COMMON AREAS:MapRefPt:84
  0
CIRCLE
  8
DORM_ROOMS_AND_COMMON_AREAS
 62
 10
 10
       16.37595
 20
       12.51548
 30
        0.76200
 40
        0.05000
999
DORM ROOMS AND COMMON AREAS:MapRefPt:85
  0
CIRCLE
  8
DORM_ROOMS_AND_COMMON_AREAS
 62
 10
 10
       17.09817
 20
       12.51548
 30
        0.76200
 40
        0.05000
999
DORM ROOMS AND COMMON AREAS:MapRefPt:86
  0
CIRCLE
  8
DORM_ROOMS_AND_COMMON_AREAS
 62
 10
 10
       17.82040
 20
       12.51548
 30
        0.76200
 40
        0.05000
999
DORM ROOMS AND COMMON AREAS:MapRefPt:87
  0
CIRCLE
  8
DORM_ROOMS_AND_COMMON_AREAS
 62
 10
 10
       18.54262
 20
       12.51548
 30
        0.76200
 40
        0.05000
999
DORM ROOMS AND COMMON AREAS:MapRefPt:88
  0
CIRCLE
  8
DORM_ROOMS_AND_COMMON_AREAS
 62
 10
 10
       19.26484
 20
       12.51548
 30
        0.76200
 40
        0.05000
999
DORM ROOMS AND COMMON AREAS:MapRefPt:89
  0
CIRCLE
  8
DORM_ROOMS_AND_COMMON_AREAS
 62
 10
 10
       19.98706
 20
       12.51548
 30
        0.76200
 40
        0.05000
999
DORM ROOMS AND COMMON AREAS:MapRefPt:90
  0
CIRCLE
  8
DORM_ROOMS_AND_COMMON_AREAS
 62
 10
 10
       20.70928
 20
       12.51548
 30
        0.76200
 40
        0.05000
999
DORM ROOMS AND COMMON AREAS:MapRefPt:91
  0
CIRCLE
  8
DORM_ROOMS_AND_COMMON_AREAS
 62
 10
 10
       14.20928
 20
       13.23770
 30
        0.76200
 40
        0.05000
999
DORM ROOMS AND COMMON AREAS:MapRefPt:92
  0
CIRCLE
  8
DORM_ROOMS_AND_COMMON_AREAS
 62
 10
 10
       14.93151
 20
       13.23770
 30
        0.76200
 40
        0.05000
999
DORM ROOMS AND COMMON AREAS:MapRefPt:93
  0
CIRCLE
  8
DORM_ROOMS_AND_COMMON_AREAS
 62
 10
 10
       15.65373
 20
       13.23770
 30
        0.76200
 40
        0.05000
999
DORM ROOMS AND COMMON AREAS:MapRefPt:94
  0
CIRCLE
  8
DORM_ROOMS_AND_COMMON_AREAS
 62
 10
 10
       16.37595
 20
       13.23770
 30
        0.76200
 40
        0.05000
999
DORM ROOMS AND COMMON AREAS:MapRefPt:95
  0
CIRCLE
  8
DORM_ROOMS_AND_COMMON_AREAS
 62
 10
 10
       17.09817
 20
       13.23770
 30
        0.76200
 40
        0.05000
999
DORM ROOMS AND COMMON AREAS:MapRefPt:96
  0
CIRCLE
  8
DORM_ROOMS_AND_COMMON_AREAS
 62
 10
 10
       17.82040
 20
       13.23770
 30
        0.76200
 40
        0.05000
999
DORM ROOMS AND COMMON AREAS:MapRefPt:97
  0
CIRCLE
  8
DORM_ROOMS_AND_COMMON_AREAS
 62
 10
 10
       18.54262
 20
       13.23770
 30
        0.76200
 40
        0.05000
999
DORM ROOMS AND COMMON AREAS:MapRefPt:98
  0
CIRCLE
  8
DORM_ROOMS_AND_COMMON_AREAS
 62
 10
 10
       19.26484
 20
       13.23770
 30
        0.76200
 40
        0.05000
999
DORM ROOMS AND COMMON AREAS:MapRefPt:99
  0
CIRCLE
  8
DORM_ROOMS_AND_COMMON_AREAS
 62
 10
 10
       19.98706
 20
       13.23770
 30
        0.76200
 40
        0.05000
999
DORM ROOMS AND COMMON AREAS:MapRefPt:100
  0
CIRCLE
  8
DORM_ROOMS_AND_COMMON_AREAS
 62
 10
 10
       20.70928
 20
       13.23770
 30
        0.76200
 40
        0.05000
  0
ENDSEC
  0
EOF
