Program Version,EnergyPlus, Windows, VERSION 5.0.0.024,IDD_Version 5.0.0.024
   ** Warning ** World Coordinate System selected.  Any non-zero Building/Zone North Axes or non-zero Zone Origins are ignored.
   **   ~~~   ** These may be used in daylighting reference point coordinate calculations  but not in normal geometry inputs.
   ************* Testing Individual Branch Integrity
   ************* All Branches passed integrity testing
   ************* Testing Individual Supply Air Path Integrity
   ************* All Supply Air Paths passed integrity testing
   ************* Testing Individual Return Air Path Integrity
   ************* All Return Air Paths passed integrity testing
   ************* No node connection errors were found.
   ************* Beginning Simulation
   ** Warning ** The following Report Variables were requested but not generated
   **   ~~~   ** because IDF did not contain these elements or misspelled variable name -- check .rdd file
   ************* Key=*, VarName=DAYLIGHT ILLUM AT REF POINT 2, Frequency=Hourly
   ************* Key=*, VarName=GLARE INDEX AT REF POINT 2, Frequency=Hourly
   ************* EnergyPlus Warmup Error Summary. During Warmup: 0 Warning; 0 Severe Errors.
   ************* EnergyPlus Sizing Error Summary. During Sizing: 0 Warning; 0 Severe Errors.
   ************* EnergyPlus Completed Successfully-- 2 Warning; 0 Severe Errors; Elapsed Time=00hr 00min 48.50sec
